Circuit: * C:\Users\critt\Documents\EE_331\EE_331_Final\555\555.asc

Direct Newton iteration for .op point succeeded.

Date: Wed Mar 01 11:46:35 2023
Total elapsed time: 0.098 seconds.

tnom = 27
temp = 27
method = modified trap
totiter = 1985
traniter = 1977
tranpoints = 440
accept = 347
rejected = 93
matrix size = 14
fillins = 0
solver = Normal
Matrix Compiler1: 384 bytes object code size  0.4/0.2/[0.2]
Matrix Compiler2: 776 bytes object code size  0.3/0.5/[0.3]

