Circuit: * C:\Users\critt\Documents\LTspiceXVII\Rec.asc

.OP point found by inspection.

Date: Wed Feb 15 13:02:40 2023
Total elapsed time: 0.296 seconds.

tnom = 27
temp = 27
method = modified trap
totiter = 2451
traniter = 2451
tranpoints = 1072
accept = 1070
rejected = 2
matrix size = 8
fillins = 5
solver = Normal
Matrix Compiler1: 572 bytes object code size  0.4/0.3/[0.2]
Matrix Compiler2: 656 bytes object code size  0.2/0.3/[0.2]

